
     RDKit          3D

 26 28  0  0  0  0  0  0  0  0999 V2000
    8.4737   47.0598   -2.7244 C   0  0  0  0  0  0  0  0  0  0  0  0
    9.4615   48.1198   -2.3054 C   0  0  0  0  0  0  0  0  0  0  0  0
    8.9496   49.0875   -1.4473 O   0  0  0  0  0  0  0  0  0  0  0  0
    9.2813   50.4050   -1.3492 C   0  0  0  0  0  0  0  0  0  0  0  0
   10.4460   50.8973   -1.8919 C   0  0  0  0  0  0  0  0  0  0  0  0
   10.7744   52.2576   -1.7834 C   0  0  0  0  0  0  0  0  0  0  0  0
    9.9599   53.1470   -1.1396 C   0  0  0  0  0  0  0  0  0  0  0  0
    8.7788   52.6188   -0.5956 C   0  0  0  0  0  0  0  0  0  0  0  0
    8.4609   51.2933   -0.7026 C   0  0  0  0  0  0  0  0  0  0  0  0
   10.3420   54.3877   -1.0864 N   0  0  0  0  0  0  0  0  0  0  0  0
   11.4792   54.7663   -1.6380 C   0  0  0  0  0  0  0  0  0  0  0  0
   12.0757   56.0592   -1.6926 N   0  0  0  0  0  0  0  0  0  0  0  0
   13.1827   56.1569   -2.4415 C   0  0  0  0  0  0  0  0  0  0  0  0
   13.4770   57.3927   -3.0474 C   0  0  0  0  0  0  0  0  0  0  0  0
   14.2003   57.9160   -3.9581 C   0  0  0  0  0  0  0  0  0  0  0  0
   15.0664   56.9206   -4.6215 O   0  0  0  0  0  0  0  0  0  0  0  0
   14.3965   59.2362   -4.4735 C   0  0  0  0  0  0  0  0  0  0  0  0
   15.2184   59.5390   -5.5106 C   0  0  0  0  0  0  0  0  0  0  0  0
   15.4278   60.8417   -5.9423 C   0  0  0  0  0  0  0  0  0  0  0  0
   14.7803   61.8764   -5.3019 C   0  0  0  0  0  0  0  0  0  0  0  0
   15.0749   63.5047   -5.8811 Cl  0  0  0  0  0  0  0  0  0  0  0  0
   13.9385   61.6139   -4.2488 C   0  0  0  0  0  0  0  0  0  0  0  0
   13.7529   60.3137   -3.8449 C   0  0  0  0  0  0  0  0  0  0  0  0
   14.2035   54.7370   -2.2962 S   0  0  0  0  0  0  0  0  0  0  0  0
   15.8122   54.9232   -3.0344 C   0  0  0  0  0  0  0  0  0  0  0  0
   12.0588   53.2673   -2.2816 S   0  0  0  0  0  0  0  0  0  0  0  0
  1  2  1  0
  2  3  1  0
  3  4  1  0
  4  5  2  0
  5  6  1  0
  6  7  2  0
  7  8  1  0
  8  9  2  0
  7 10  1  0
 10 11  2  0
 11 12  1  0
 12 13  2  3
 13 14  1  0
 14 15  2  3
 15 16  1  0
 15 17  1  0
 17 18  2  0
 18 19  1  0
 19 20  2  0
 20 21  1  0
 20 22  1  0
 22 23  2  0
 13 24  1  0
 24 25  1  0
 11 26  1  0
  9  4  1  0
 23 17  1  0
 26  6  1  0
M  END
$$$$
