
     RDKit          3D

 19 21  0  0  0  0  0  0  0  0999 V2000
   -7.1922   29.3072   39.1378 N   0  0  0  0  0  0  0  0  0  0  0  0
   -8.4774   28.8534   39.5449 C   0  0  0  0  0  0  0  0  0  0  0  0
   -9.1702   29.3827   40.6114 C   0  0  0  0  0  0  0  0  0  0  0  0
   -8.9105   30.3827   41.5233 C   0  0  0  0  0  0  0  0  0  0  0  0
   -9.8125   30.7169   42.5234 C   0  0  0  0  0  0  0  0  0  0  0  0
   -9.5511   31.7561   43.4768 N   0  0  0  0  0  0  0  0  0  0  0  0
   -8.4235   32.5824   43.4275 C   0  0  0  0  0  0  0  0  0  0  0  0
   -7.4999   32.2635   42.6296 O   0  0  0  0  0  0  0  0  0  0  0  0
   -8.3329   33.7907   44.2915 C   0  0  0  0  0  0  0  0  0  0  0  0
   -6.8796   34.1804   44.4641 C   0  0  0  0  0  0  0  0  0  0  0  0
   -6.3751   34.9566   43.2587 C   0  0  0  0  0  0  0  0  0  0  0  0
   -7.2280   36.1958   43.1775 C   0  0  0  0  0  0  0  0  0  0  0  0
   -8.6717   35.8284   43.0200 C   0  0  0  0  0  0  0  0  0  0  0  0
   -9.1629   34.8334   43.8627 N   0  0  0  0  0  0  0  0  0  0  0  0
  -10.9897   30.0027   42.5694 C   0  0  0  0  0  0  0  0  0  0  0  0
  -11.2645   28.9873   41.6514 C   0  0  0  0  0  0  0  0  0  0  0  0
  -10.3543   28.6719   40.6662 C   0  0  0  0  0  0  0  0  0  0  0  0
  -10.3643   27.7541   39.6687 N   0  0  0  0  0  0  0  0  0  0  0  0
   -9.2318   27.8605   38.9887 N   0  0  0  0  0  0  0  0  0  0  0  0
  1  2  1  0
  2  3  2  0
  3  4  1  0
  4  5  2  0
  5  6  1  0
  6  7  1  0
  7  8  2  0
  7  9  1  0
  9 10  1  0
 10 11  1  0
 11 12  1  0
 12 13  1  0
 13 14  1  0
  5 15  1  0
 15 16  2  0
 16 17  1  0
 17 18  2  0
 18 19  1  0
 19  2  1  0
 17  3  1  0
 14  9  1  0
M  END
$$$$
