
     RDKit          3D

 33 37  0  0  0  0  0  0  0  0999 V2000
   -0.1578   -2.7534   19.9584 N   0  0  0  0  0  0  0  0  0  0  0  0
   -0.6465   -4.0864   19.9432 C   0  0  0  0  0  0  0  0  0  0  0  0
   -0.4396   -4.8780   20.9955 N   0  0  0  0  0  0  0  0  0  0  0  0
   -0.8898   -6.1671   21.0270 C   0  0  0  0  0  0  0  0  0  0  0  0
   -0.6227   -6.9937   22.2324 C   0  0  0  0  0  0  0  0  0  0  0  0
    0.5366   -7.7551   21.9358 F   0  0  0  0  0  0  0  0  0  0  0  0
   -0.2905   -6.2242   23.3140 F   0  0  0  0  0  0  0  0  0  0  0  0
   -1.6267   -7.8930   22.4510 F   0  0  0  0  0  0  0  0  0  0  0  0
   -1.5734   -6.6438   19.9341 C   0  0  0  0  0  0  0  0  0  0  0  0
   -2.0696   -8.0079   19.8788 C   0  0  0  0  0  0  0  0  0  0  0  0
   -1.9413   -8.7944   18.8100 N   0  0  0  0  0  0  0  0  0  0  0  0
   -2.3946  -10.0438   18.7190 C   0  0  0  0  0  0  0  0  0  0  0  0
   -2.2137  -10.8089   17.5647 N   0  0  0  0  0  0  0  0  0  0  0  0
   -2.5969  -12.2126   17.5600 C   0  0  0  0  0  0  0  0  0  0  0  0
   -3.5039  -12.3920   16.3546 C   0  0  0  0  0  0  0  0  0  0  0  0
   -2.8974  -11.9577   15.2063 O   0  0  0  0  0  0  0  0  0  0  0  0
   -1.6272  -11.4442   15.3519 C   0  0  0  0  0  0  0  0  0  0  0  0
   -1.6517  -10.2785   16.3600 C   0  0  0  0  0  0  0  0  0  0  0  0
   -3.0404  -10.5585   19.8034 N   0  0  0  0  0  0  0  0  0  0  0  0
   -3.2232   -9.8603   20.9204 C   0  0  0  0  0  0  0  0  0  0  0  0
   -3.8993  -10.4117   22.0434 N   0  0  0  0  0  0  0  0  0  0  0  0
   -5.2492  -10.8567   22.0207 C   0  0  0  0  0  0  0  0  0  0  0  0
   -6.0432  -10.7206   21.0349 O   0  0  0  0  0  0  0  0  0  0  0  0
   -5.5828  -11.4634   23.2293 O   0  0  0  0  0  0  0  0  0  0  0  0
   -4.5916  -11.1204   24.1592 C   0  0  2  0  0  0  0  0  0  0  0  0
   -5.0415   -9.9317   24.9885 C   0  0  1  0  0  0  0  0  0  0  0  0
   -5.7507  -10.3448   26.1158 O   0  0  0  0  0  0  0  0  0  0  0  0
   -3.7186   -9.2904   25.3522 C   0  0  0  0  0  0  0  0  0  0  0  0
   -2.9783   -9.3253   24.0373 C   0  0  0  0  0  0  0  0  0  0  0  0
   -3.3955  -10.6326   23.3927 C   0  0  2  0  0  0  0  0  0  0  0  0
   -2.7239   -8.5513   20.9565 C   0  0  0  0  0  0  0  0  0  0  0  0
   -1.7804   -5.7991   18.8413 C   0  0  0  0  0  0  0  0  0  0  0  0
   -1.3065   -4.5370   18.8806 N   0  0  0  0  0  0  0  0  0  0  0  0
  1  2  1  0
  2  3  2  0
  3  4  1  0
  4  5  1  0
  5  6  1  0
  5  7  1  0
  5  8  1  0
  4  9  2  0
  9 10  1  0
 10 11  2  0
 11 12  1  0
 12 13  1  0
 13 14  1  0
 14 15  1  0
 15 16  1  0
 16 17  1  0
 17 18  1  0
 12 19  2  0
 19 20  1  0
 20 21  1  0
 21 22  1  0
 22 23  2  0
 22 24  1  0
 25 24  1  6
 25 26  1  0
 26 27  1  1
 26 28  1  0
 28 29  1  0
 30 29  1  1
 20 31  2  0
  9 32  1  0
 32 33  2  0
 33  2  1  0
 31 10  1  0
 18 13  1  0
 30 21  1  0
 30 25  1  0
M  END
$$$$
