
     RDKit          3D

  8  7  0  0  0  0  0  0  0  0999 V2000
   13.7872    0.7524   16.6211 O   0  0  0  0  0  0  0  0  0  0  0  0
   14.8656    1.3695   16.4292 C   0  0  0  0  0  0  0  0  0  0  0  0
   16.0512    0.6513   16.1168 N   0  0  0  0  0  0  0  0  0  0  0  0
   16.1293   -0.7070   16.2252 O   0  0  0  0  0  0  0  0  0  0  0  0
   14.8957    2.8521   16.5303 C   0  0  0  0  0  0  0  0  0  0  0  0
   13.9888    3.3978   15.6533 F   0  0  0  0  0  0  0  0  0  0  0  0
   16.1536    3.3101   16.1213 F   0  0  0  0  0  0  0  0  0  0  0  0
   14.7204    3.2679   17.8235 F   0  0  0  0  0  0  0  0  0  0  0  0
  1  2  2  0
  2  3  1  0
  3  4  1  0
  2  5  1  0
  5  6  1  0
  5  7  1  0
  5  8  1  0
M  END
$$$$
