
     RDKit          3D

 30 34  0  0  0  0  0  0  0  0999 V2000
    4.6277  -13.0473  -26.7166 C   0  0  0  0  0  0  0  0  0  0  0  0
    5.1644  -11.7616  -27.2805 C   0  0  2  0  0  0  0  0  0  0  0  0
    4.0478  -11.1163  -28.0886 C   0  0  0  0  0  0  0  0  0  0  0  0
    4.6155   -9.9910  -28.7528 N   0  0  0  0  0  0  0  0  0  0  0  0
    4.1974   -8.6715  -28.5572 C   0  0  0  0  0  0  0  0  0  0  0  0
    4.4181   -7.7591  -29.5658 C   0  0  0  0  0  0  0  0  0  0  0  0
    4.0207   -6.4228  -29.4178 C   0  0  0  0  0  0  0  0  0  0  0  0
    3.4074   -5.9766  -28.2838 C   0  0  0  0  0  0  0  0  0  0  0  0
    3.0090   -4.6496  -28.1018 N   0  0  0  0  0  0  0  0  0  0  0  0
    1.7870   -4.1892  -27.5709 C   0  0  0  0  0  0  0  0  0  0  0  0
    1.1018   -5.0449  -26.7593 N   0  0  0  0  0  0  0  0  0  0  0  0
   -0.0905   -4.7020  -26.1842 C   0  0  0  0  0  0  0  0  0  0  0  0
   -0.7255   -5.7302  -25.3916 C   0  0  0  0  0  0  0  0  0  0  0  0
   -0.2262   -7.0547  -25.2612 C   0  0  0  0  0  0  0  0  0  0  0  0
   -1.0098   -7.7475  -24.4385 N   0  0  0  0  0  0  0  0  0  0  0  0
   -2.0109   -6.9858  -23.9960 C   0  0  0  0  0  0  0  0  0  0  0  0
   -1.8451   -5.7352  -24.5779 C   0  0  0  0  0  0  0  0  0  0  0  0
   -2.7228   -4.7083  -24.2979 C   0  0  0  0  0  0  0  0  0  0  0  0
   -3.7871   -4.9089  -23.4343 C   0  0  0  0  0  0  0  0  0  0  0  0
   -3.9431   -6.1483  -22.8677 C   0  0  0  0  0  0  0  0  0  0  0  0
   -3.0706   -7.1811  -23.1386 C   0  0  0  0  0  0  0  0  0  0  0  0
   -0.5823   -3.4660  -26.4493 C   0  0  0  0  0  0  0  0  0  0  0  0
    0.1116   -2.5635  -27.2866 C   0  0  0  0  0  0  0  0  0  0  0  0
    1.2640   -2.9894  -27.7983 N   0  0  0  0  0  0  0  0  0  0  0  0
    3.1980   -6.9094  -27.2893 C   0  0  0  0  0  0  0  0  0  0  0  0
    3.5900   -8.2541  -27.4207 C   0  0  0  0  0  0  0  0  0  0  0  0
    5.7125  -10.2803  -29.6940 C   0  0  0  0  0  0  0  0  0  0  0  0
    6.0944  -11.7369  -29.4038 C   0  0  1  0  0  0  0  0  0  0  0  0
    7.4163  -12.0688  -30.1043 C   0  0  0  0  0  0  0  0  0  0  0  0
    6.2924  -11.9799  -28.0679 O   0  0  0  0  0  0  0  0  0  0  0  0
  2  1  1  6
  2  3  1  0
  3  4  1  0
  4  5  1  0
  5  6  2  0
  6  7  1  0
  7  8  2  0
  8  9  1  0
  9 10  1  0
 10 11  2  0
 11 12  1  0
 12 13  1  0
 13 14  2  0
 14 15  1  0
 15 16  1  0
 16 17  2  0
 17 18  1  0
 18 19  2  0
 19 20  1  0
 20 21  2  0
 12 22  2  0
 22 23  1  0
 23 24  2  0
  8 25  1  0
 25 26  2  0
  4 27  1  0
 27 28  1  0
 28 29  1  6
 28 30  1  0
 30  2  1  0
 26  5  1  0
 24 10  1  0
 17 13  1  0
 21 16  1  0
M  END
$$$$
