
     RDKit          3D

 39 42  0  0  0  0  0  0  0  0999 V2000
   20.3861   12.8297   16.3444 O   0  0  0  0  0  0  0  0  0  0  0  0
   21.2887   11.9645   16.5155 C   0  0  0  0  0  0  0  0  0  0  0  0
   22.6155   12.4163   16.5302 N   0  0  0  0  0  0  0  0  0  0  0  0
   23.1221   13.3890   15.5742 C   0  0  1  0  0  0  0  0  0  0  0  0
   24.0070   12.7603   14.5358 C   0  0  0  0  0  0  0  0  0  0  0  0
   23.1258   12.4166   13.3627 C   0  0  1  0  0  0  0  0  0  0  0  0
   23.0585   11.0397   13.1362 O   0  0  0  0  0  0  0  0  0  0  0  0
   21.7609   12.9760   13.7062 C   0  0  0  0  0  0  0  0  0  0  0  0
   22.0038   13.9993   14.7955 C   0  0  1  0  0  0  0  0  0  0  0  0
   20.8242   14.1868   15.5108 O   0  0  0  0  0  0  0  0  0  0  0  0
   20.5731   15.2728   16.3466 C   0  0  0  0  0  0  0  0  0  0  0  0
   21.4730   15.5477   17.1805 O   0  0  0  0  0  0  0  0  0  0  0  0
   19.3429   16.0489   16.2651 C   0  0  0  0  0  0  0  0  0  0  0  0
   19.0532   16.9237   17.3032 C   0  0  0  0  0  0  0  0  0  0  0  0
   17.9141   17.6832   17.2919 C   0  0  0  0  0  0  0  0  0  0  0  0
   17.6050   18.5724   18.3323 O   0  0  0  0  0  0  0  0  0  0  0  0
   17.0009   17.6026   16.2301 C   0  0  0  0  0  0  0  0  0  0  0  0
   15.8704   18.5023   16.2129 C   0  0  0  0  0  0  0  0  0  0  0  0
   14.8108   18.0750   16.8213 O   0  0  0  0  0  0  0  0  0  0  0  0
   15.7746   19.8110   15.6196 C   0  0  0  0  0  0  0  0  0  0  0  0
   16.7228   20.3565   14.8275 C   0  0  0  0  0  0  0  0  0  0  0  0
   17.8709   19.6464   14.3260 C   0  0  0  0  0  0  0  0  0  0  0  0
   18.4346   20.0811   13.2512 O   0  0  0  0  0  0  0  0  0  0  0  0
   18.4560   18.5304   14.8519 O   0  0  0  0  0  0  0  0  0  0  0  0
   16.4924   21.6410   14.2798 C   0  0  0  0  0  0  0  0  0  0  0  0
   15.3406   22.3480   14.5175 C   0  0  0  0  0  0  0  0  0  0  0  0
   14.3840   21.7700   15.3217 C   0  0  0  0  0  0  0  0  0  0  0  0
   14.5919   20.5343   15.8604 C   0  0  0  0  0  0  0  0  0  0  0  0
   13.6202   19.9533   16.6742 O   0  0  0  0  0  0  0  0  0  0  0  0
   17.3230   16.7162   15.2042 C   0  0  0  0  0  0  0  0  0  0  0  0
   16.4531   16.6146   14.1387 O   0  0  0  0  0  0  0  0  0  0  0  0
   18.4674   15.9593   15.2265 C   0  0  0  0  0  0  0  0  0  0  0  0
   20.8876   10.5689   16.6841 C   0  0  0  0  0  0  0  0  0  0  0  0
   19.5773   10.1824   16.4813 C   0  0  0  0  0  0  0  0  0  0  0  0
   19.1576    8.8784   16.6295 C   0  0  0  0  0  0  0  0  0  0  0  0
   20.0448    7.8892   16.9925 C   0  0  0  0  0  0  0  0  0  0  0  0
   19.5953    6.5824   17.1350 O   0  0  0  0  0  0  0  0  0  0  0  0
   21.3600    8.2464   17.2016 C   0  0  0  0  0  0  0  0  0  0  0  0
   21.7719    9.5754   17.0473 C   0  0  0  0  0  0  0  0  0  0  0  0
  1  2  2  0
  2  3  1  0
  4  3  1  1
  4  5  1  0
  5  6  1  0
  6  7  1  1
  6  8  1  0
  8  9  1  0
  9 10  1  1
 10 11  1  0
 11 12  2  0
 11 13  1  0
 13 14  2  0
 14 15  1  0
 15 16  1  0
 15 17  2  0
 17 18  1  0
 18 19  2  0
 18 20  1  0
 20 21  2  0
 21 22  1  0
 22 23  2  0
 22 24  1  0
 21 25  1  0
 25 26  2  0
 26 27  1  0
 27 28  2  0
 28 29  1  0
 17 30  1  0
 30 31  1  0
 30 32  2  0
  2 33  1  0
 33 34  2  0
 34 35  1  0
 35 36  2  0
 36 37  1  0
 36 38  1  0
 38 39  2  0
  9  4  1  0
 32 13  1  0
 39 33  1  0
 28 20  1  0
M  END
$$$$
