
     RDKit          3D

 24 26  0  0  0  0  0  0  0  0999 V2000
   -4.7532    9.9811   -8.1679 C   0  0  0  0  0  0  0  0  0  0  0  0
   -4.2742   11.3357   -8.6363 C   0  0  0  0  0  0  0  0  0  0  0  0
   -3.3541   11.8895   -7.5778 C   0  0  0  0  0  0  0  0  0  0  0  0
   -3.4257   11.1002   -9.8780 C   0  0  0  0  0  0  0  0  0  0  0  0
   -5.3168   12.2084   -8.9739 O   0  0  0  0  0  0  0  0  0  0  0  0
   -5.1749   13.5344   -9.2717 C   0  0  0  0  0  0  0  0  0  0  0  0
   -4.0437   14.0105   -9.4191 O   0  0  0  0  0  0  0  0  0  0  0  0
   -6.3415   14.4058   -9.4203 C   0  0  0  0  0  0  0  0  0  0  0  0
   -6.2443   15.6852   -9.9130 C   0  0  0  0  0  0  0  0  0  0  0  0
   -7.3860   16.4857  -10.0389 C   0  0  0  0  0  0  0  0  0  0  0  0
   -8.6208   16.0009   -9.6704 C   0  0  0  0  0  0  0  0  0  0  0  0
   -9.8211   16.8007   -9.7871 N   0  0  0  0  0  0  0  0  0  0  0  0
  -11.0629   16.3897   -9.6631 N   0  0  0  0  0  0  0  0  0  0  0  0
  -11.9151   17.3739   -9.8281 C   0  0  0  0  0  0  0  0  0  0  0  0
  -11.1935   18.5262  -10.0806 C   0  0  0  0  0  0  0  0  0  0  0  0
  -11.6979   19.8348  -10.3216 N   0  0  0  0  0  0  0  0  0  0  0  0
  -11.0829   20.7945  -11.0296 C   0  0  0  0  0  0  0  0  0  0  0  0
  -11.8924   21.9371  -11.0410 C   0  0  0  0  0  0  0  0  0  0  0  0
  -12.9797   21.5832  -10.3157 N   0  0  0  0  0  0  0  0  0  0  0  0
  -12.8434   20.3344   -9.8996 N   0  0  0  0  0  0  0  0  0  0  0  0
   -9.8748   18.1181  -10.0454 C   0  0  0  0  0  0  0  0  0  0  0  0
   -8.7694   18.9435  -10.2465 O   0  0  0  0  0  0  0  0  0  0  0  0
   -8.7040   14.7628   -9.1953 N   0  0  0  0  0  0  0  0  0  0  0  0
   -7.6078   13.9589   -9.0613 C   0  0  0  0  0  0  0  0  0  0  0  0
  1  2  1  0
  2  3  1  0
  2  4  1  0
  2  5  1  0
  5  6  1  0
  6  7  2  0
  6  8  1  0
  8  9  2  0
  9 10  1  0
 10 11  2  0
 11 12  1  0
 12 13  1  0
 13 14  2  0
 14 15  1  0
 15 16  1  0
 16 17  1  0
 17 18  2  0
 18 19  1  0
 19 20  2  0
 15 21  2  0
 21 22  1  0
 11 23  1  0
 23 24  2  0
 24  8  1  0
 21 12  1  0
 20 16  1  0
M  END
$$$$
