
     RDKit          3D

 25 27  0  0  0  0  0  0  0  0999 V2000
   -2.7662    2.3526   35.5207 C   0  0  0  0  0  0  0  0  0  0  0  0
   -2.4119    3.7503   35.7660 N   0  0  0  0  0  0  0  0  0  0  0  0
   -1.7084    4.5349   34.9275 C   0  0  0  0  0  0  0  0  0  0  0  0
   -1.5634    5.7878   35.4851 C   0  0  0  0  0  0  0  0  0  0  0  0
   -0.9157    6.9405   35.0003 N   0  0  0  0  0  0  0  0  0  0  0  0
   -0.2255    7.0198   33.7604 C   0  0  0  0  0  0  0  0  0  0  0  0
   -0.1526    5.9937   33.0391 O   0  0  0  0  0  0  0  0  0  0  0  0
    0.3797    8.2829   33.3544 C   0  0  0  0  0  0  0  0  0  0  0  0
    1.3590    8.4640   32.3862 C   0  0  0  0  0  0  0  0  0  0  0  0
    1.9940    7.5562   31.5866 N   0  0  0  0  0  0  0  0  0  0  0  0
    2.9103    8.0425   30.7323 C   0  0  0  0  0  0  0  0  0  0  0  0
    3.6478    7.2206   29.8433 N   0  0  0  0  0  0  0  0  0  0  0  0
    3.3765    5.8187   29.7722 C   0  0  0  0  0  0  0  0  0  0  0  0
    4.3406    4.9780   30.5484 C   0  0  0  0  0  0  0  0  0  0  0  0
    4.0606    3.5597   30.4323 N   0  0  0  0  0  0  0  0  0  0  0  0
    3.2021    9.4049   30.6616 C   0  0  0  0  0  0  0  0  0  0  0  0
    2.5438   10.2912   31.4813 C   0  0  0  0  0  0  0  0  0  0  0  0
    1.6254    9.7818   32.3341 N   0  0  0  0  0  0  0  0  0  0  0  0
    0.8495   10.4167   33.2306 N   0  0  0  0  0  0  0  0  0  0  0  0
    0.0731    9.5369   33.8755 C   0  0  0  0  0  0  0  0  0  0  0  0
   -2.2241    5.7118   36.7156 C   0  0  0  0  0  0  0  0  0  0  0  0
   -2.3276    6.8229   37.6624 C   0  0  0  0  0  0  0  0  0  0  0  0
   -2.9372    6.6056   38.9212 N   0  0  0  0  0  0  0  0  0  0  0  0
   -1.8852    7.9596   37.3747 O   0  0  0  0  0  0  0  0  0  0  0  0
   -2.7119    4.4788   36.8353 N   0  0  0  0  0  0  0  0  0  0  0  0
  1  2  1  0
  2  3  1  0
  3  4  2  0
  4  5  1  0
  5  6  1  0
  6  7  2  0
  6  8  1  0
  8  9  2  0
  9 10  1  0
 10 11  2  0
 11 12  1  0
 12 13  1  0
 13 14  1  0
 14 15  1  0
 11 16  1  0
 16 17  2  0
 17 18  1  0
 18 19  1  0
 19 20  2  0
  4 21  1  0
 21 22  1  0
 22 23  1  0
 22 24  2  0
 21 25  2  0
 25  2  1  0
 20  8  1  0
 18  9  1  0
M  END
$$$$
