
     RDKit          3D

 12 13  0  0  0  0  0  0  0  0999 V2000
  -26.7340   27.6630   14.8438 C   0  0  0  0  0  0  0  0  0  0  0  0
  -26.7439   27.8373   13.0484 S   0  0  0  0  0  0  0  0  0  0  0  0
  -25.2968   28.7744   12.5800 C   0  0  0  0  0  0  0  0  0  0  0  0
  -25.2462   30.0361   12.2381 N   0  0  0  0  0  0  0  0  0  0  0  0
  -24.1114   30.5869   11.9196 C   0  0  0  0  0  0  0  0  0  0  0  0
  -22.9910   29.8044   11.9563 C   0  0  0  0  0  0  0  0  0  0  0  0
  -23.6481   28.2937   12.4564 S   0  0  0  0  0  0  0  0  0  0  0  0
  -21.7209   30.3012   11.6314 C   0  0  0  0  0  0  0  0  0  0  0  0
  -20.3991   29.1915   11.7241 Cl  0  0  0  0  0  0  0  0  0  0  0  0
  -21.5741   31.6061   11.2635 N   0  0  0  0  0  0  0  0  0  0  0  0
  -22.6995   32.3044   11.2498 N   0  0  0  0  0  0  0  0  0  0  0  0
  -23.8888   31.8856   11.5417 N   0  0  0  0  0  0  0  0  0  0  0  0
  1  2  1  0
  2  3  1  0
  3  4  2  0
  4  5  1  0
  5  6  2  0
  6  7  1  0
  6  8  1  0
  8  9  1  0
  8 10  2  0
 10 11  1  0
 11 12  2  0
  7  3  1  0
 12  5  1  0
M  END
$$$$
