
     RDKit          3D

 39 42  0  0  0  0  0  0  0  0999 V2000
    4.4208   41.6406    3.5330 O   0  0  0  0  0  0  0  0  0  0  0  0
    4.4780   41.0878    2.4077 C   0  0  0  0  0  0  0  0  0  0  0  0
    4.1833   41.9501    1.3230 N   0  0  0  0  0  0  0  0  0  0  0  0
    3.4432   43.1324    1.4586 C   0  0  1  0  0  0  0  0  0  0  0  0
    4.4479   44.2994    1.4615 C   0  0  0  0  0  0  0  0  0  0  0  0
    4.4769   44.7749    0.0350 C   0  0  1  0  0  0  0  0  0  0  0  0
    5.6671   44.3698   -0.5377 O   0  0  0  0  0  0  0  0  0  0  0  0
    3.3212   44.1292   -0.6858 C   0  0  0  0  0  0  0  0  0  0  0  0
    2.5028   43.5666    0.4350 C   0  0  1  0  0  0  0  0  0  0  0  0
    1.4988   42.6921    0.0555 O   0  0  0  0  0  0  0  0  0  0  0  0
    1.4817   41.9520   -1.1022 C   0  0  0  0  0  0  0  0  0  0  0  0
    2.1356   42.3862   -2.0805 O   0  0  0  0  0  0  0  0  0  0  0  0
    0.7568   40.7034   -1.2637 C   0  0  0  0  0  0  0  0  0  0  0  0
   -0.3446   40.5659   -2.0686 C   0  0  0  0  0  0  0  0  0  0  0  0
   -0.9873   39.3521   -2.1771 C   0  0  0  0  0  0  0  0  0  0  0  0
   -2.0999   39.2328   -2.9963 O   0  0  0  0  0  0  0  0  0  0  0  0
   -0.5759   38.2117   -1.4966 C   0  0  0  0  0  0  0  0  0  0  0  0
   -1.2522   36.9642   -1.7648 C   0  0  0  0  0  0  0  0  0  0  0  0
   -2.0327   36.4825   -0.8273 O   0  0  0  0  0  0  0  0  0  0  0  0
   -1.2128   36.1423   -2.9432 C   0  0  0  0  0  0  0  0  0  0  0  0
   -1.6903   36.5314   -4.1502 C   0  0  0  0  0  0  0  0  0  0  0  0
   -2.1313   37.9111   -4.4438 C   0  0  0  0  0  0  0  0  0  0  0  0
   -1.6599   38.9453   -3.9685 O   0  0  0  0  0  0  0  0  0  0  0  0
   -3.1934   38.0678   -5.3527 O   0  0  0  0  0  0  0  0  0  0  0  0
   -1.5877   35.6632   -5.2491 C   0  0  0  0  0  0  0  0  0  0  0  0
   -1.0018   34.4332   -5.1044 C   0  0  0  0  0  0  0  0  0  0  0  0
   -0.5185   34.0605   -3.8792 C   0  0  0  0  0  0  0  0  0  0  0  0
   -0.6145   34.8927   -2.8009 C   0  0  0  0  0  0  0  0  0  0  0  0
   -0.1101   34.4816   -1.5619 O   0  0  0  0  0  0  0  0  0  0  0  0
    0.5323   38.3413   -0.6859 C   0  0  0  0  0  0  0  0  0  0  0  0
    1.0041   37.2453    0.0184 O   0  0  0  0  0  0  0  0  0  0  0  0
    1.1747   39.5843   -0.5860 C   0  0  0  0  0  0  0  0  0  0  0  0
    4.8204   39.6764    2.2467 C   0  0  0  0  0  0  0  0  0  0  0  0
    4.1885   38.9102    1.2868 C   0  0  0  0  0  0  0  0  0  0  0  0
    4.4917   37.5715    1.1113 C   0  0  0  0  0  0  0  0  0  0  0  0
    5.4491   36.9499    1.9011 C   0  0  0  0  0  0  0  0  0  0  0  0
    5.7319   35.6063    1.7020 O   0  0  0  0  0  0  0  0  0  0  0  0
    6.0822   37.7056    2.8583 C   0  0  0  0  0  0  0  0  0  0  0  0
    5.7641   39.0398    3.0163 C   0  0  0  0  0  0  0  0  0  0  0  0
  1  2  2  0
  2  3  1  0
  4  3  1  6
  4  5  1  0
  5  6  1  0
  6  7  1  6
  6  8  1  0
  8  9  1  0
  9 10  1  6
 10 11  1  0
 11 12  2  0
 11 13  1  0
 13 14  2  0
 14 15  1  0
 15 16  1  0
 15 17  2  0
 17 18  1  0
 18 19  2  0
 18 20  1  0
 20 21  2  0
 21 22  1  0
 22 23  2  0
 22 24  1  0
 21 25  1  0
 25 26  2  0
 26 27  1  0
 27 28  2  0
 28 29  1  0
 17 30  1  0
 30 31  1  0
 30 32  2  0
  2 33  1  0
 33 34  2  0
 34 35  1  0
 35 36  2  0
 36 37  1  0
 36 38  1  0
 38 39  2  0
  9  4  1  0
 32 13  1  0
 39 33  1  0
 28 20  1  0
M  END
$$$$
