
     RDKit          3D

 20 22  0  0  0  0  0  0  0  0999 V2000
  -20.0250   -3.7441    7.2284 C   0  0  0  0  0  0  0  0  0  0  0  0
  -18.7573   -3.6305    6.4558 C   0  0  0  0  0  0  0  0  0  0  0  0
  -17.6145   -3.6624    7.1672 N   0  0  0  0  0  0  0  0  0  0  0  0
  -16.4150   -3.5649    6.5396 C   0  0  0  0  0  0  0  0  0  0  0  0
  -16.4075   -3.4346    5.1744 C   0  0  0  0  0  0  0  0  0  0  0  0
  -17.5504   -3.3969    4.4021 C   0  0  0  0  0  0  0  0  0  0  0  0
  -17.5432   -3.2585    2.9512 C   0  0  0  0  0  0  0  0  0  0  0  0
  -16.6920   -3.9458    2.1169 C   0  0  0  0  0  0  0  0  0  0  0  0
  -15.6782   -4.9052    2.5331 C   0  0  0  0  0  0  0  0  0  0  0  0
  -14.3256   -4.7071    2.2380 C   0  0  0  0  0  0  0  0  0  0  0  0
  -13.3920   -5.6494    2.6545 C   0  0  0  0  0  0  0  0  0  0  0  0
  -11.7137   -5.3607    2.2637 Cl  0  0  0  0  0  0  0  0  0  0  0  0
  -13.7594   -6.7805    3.3539 C   0  0  0  0  0  0  0  0  0  0  0  0
  -15.0853   -6.9901    3.6521 C   0  0  0  0  0  0  0  0  0  0  0  0
  -15.9966   -6.0495    3.2335 C   0  0  0  0  0  0  0  0  0  0  0  0
  -16.9283   -3.6035    0.8311 N   0  0  0  0  0  0  0  0  0  0  0  0
  -16.2391   -4.1105   -0.3400 C   0  0  0  0  0  0  0  0  0  0  0  0
  -17.9095   -2.7157    0.8362 N   0  0  0  0  0  0  0  0  0  0  0  0
  -18.3147   -2.4769    2.1182 C   0  0  0  0  0  0  0  0  0  0  0  0
  -18.7576   -3.4978    5.0634 C   0  0  0  0  0  0  0  0  0  0  0  0
  1  2  1  0
  2  3  2  0
  3  4  1  0
  4  5  2  0
  5  6  1  0
  6  7  1  0
  7  8  2  0
  8  9  1  0
  9 10  2  0
 10 11  1  0
 11 12  1  0
 11 13  2  0
 13 14  1  0
 14 15  2  0
  8 16  1  0
 16 17  1  0
 16 18  1  0
 18 19  2  0
  6 20  2  0
 20  2  1  0
 19  7  1  0
 15  9  1  0
M  END
$$$$
