
     RDKit          3D

 21 23  0  0  0  0  0  0  0  0999 V2000
   70.7137   21.2054  197.2146 C   0  0  0  0  0  0  0  0  0  0  0  0
   69.6621   21.1621  197.5088 C   0  0  0  0  0  0  0  0  0  0  0  0
   68.3513   21.1310  197.8803 C   0  0  0  0  0  0  0  0  0  0  0  0
   67.2223   21.5524  196.4079 S   0  0  0  0  0  0  0  0  0  0  0  0
   67.8798   23.0579  195.5686 C   0  0  0  0  0  0  0  0  0  0  0  0
   68.9617   23.7017  195.9178 N   0  0  0  0  0  0  0  0  0  0  0  0
   69.2286   24.9153  195.2282 C   0  0  0  0  0  0  0  0  0  0  0  0
   68.3116   25.3466  194.1876 C   0  0  0  0  0  0  0  0  0  0  0  0
   68.7796   26.3893  193.4365 C   0  0  0  0  0  0  0  0  0  0  0  0
   69.8535   27.1092  193.5423 C   0  0  0  0  0  0  0  0  0  0  0  0
   70.7703   26.7926  194.6959 C   0  0  0  0  0  0  0  0  0  0  0  0
   70.2700   25.7053  195.3448 C   0  0  0  0  0  0  0  0  0  0  0  0
   67.1977   24.6603  193.9098 C   0  0  0  0  0  0  0  0  0  0  0  0
   66.3385   25.0531  193.0337 O   0  0  0  0  0  0  0  0  0  0  0  0
   67.0546   23.4863  194.6554 N   0  0  0  0  0  0  0  0  0  0  0  0
   65.7854   22.9532  194.3344 C   0  0  0  0  0  0  0  0  0  0  0  0
   65.5731   22.6141  192.9851 C   0  0  0  0  0  0  0  0  0  0  0  0
   64.4120   22.1752  192.5282 C   0  0  0  0  0  0  0  0  0  0  0  0
   63.3383   22.0528  193.4133 C   0  0  0  0  0  0  0  0  0  0  0  0
   63.4992   22.3754  194.7414 C   0  0  0  0  0  0  0  0  0  0  0  0
   64.7227   22.8173  195.1786 C   0  0  0  0  0  0  0  0  0  0  0  0
  1  2  3  0
  2  3  1  0
  3  4  1  0
  4  5  1  0
  5  6  2  0
  6  7  1  0
  7  8  2  0
  8  9  1  0
  9 10  2  0
 10 11  1  0
 11 12  2  0
  8 13  1  0
 13 14  2  0
 13 15  1  0
 15 16  1  0
 16 17  2  0
 17 18  1  0
 18 19  2  0
 19 20  1  0
 20 21  2  0
 15  5  1  0
 21 16  1  0
 12  7  1  0
M  END
$$$$
