
     RDKit          3D

 39 42  0  0  0  0  0  0  0  0999 V2000
    5.7004   31.9083   50.7196 O   0  0  0  0  0  0  0  0  0  0  0  0
    4.7312   31.3185   51.2892 C   0  0  0  0  0  0  0  0  0  0  0  0
    4.6548   29.9257   51.0179 N   0  0  0  0  0  0  0  0  0  0  0  0
    5.5630   29.2138   50.1719 C   0  0  1  0  0  0  0  0  0  0  0  0
    6.9199   28.9874   50.7507 C   0  0  0  0  0  0  0  0  0  0  0  0
    6.9830   27.5445   51.2119 C   0  0  1  0  0  0  0  0  0  0  0  0
    7.3169   27.4306   52.5432 O   0  0  0  0  0  0  0  0  0  0  0  0
    5.6007   26.9477   50.9217 C   0  0  0  0  0  0  0  0  0  0  0  0
    5.1280   27.8311   49.8064 C   0  0  1  0  0  0  0  0  0  0  0  0
    3.7913   27.6972   49.4581 O   0  0  0  0  0  0  0  0  0  0  0  0
    2.9414   28.7004   49.0901 C   0  0  0  0  0  0  0  0  0  0  0  0
    3.1958   29.8681   49.4671 O   0  0  0  0  0  0  0  0  0  0  0  0
    1.7319   28.5218   48.2745 C   0  0  0  0  0  0  0  0  0  0  0  0
    1.1004   27.2982   48.1906 C   0  0  0  0  0  0  0  0  0  0  0  0
   -0.0303   27.1215   47.4320 C   0  0  0  0  0  0  0  0  0  0  0  0
   -0.6591   25.8866   47.3535 O   0  0  0  0  0  0  0  0  0  0  0  0
   -0.5798   28.1918   46.7141 C   0  0  0  0  0  0  0  0  0  0  0  0
   -1.7046   27.9153   45.8527 C   0  0  0  0  0  0  0  0  0  0  0  0
   -2.1514   28.8892   45.0970 O   0  0  0  0  0  0  0  0  0  0  0  0
   -2.4467   26.6947   45.6963 C   0  0  0  0  0  0  0  0  0  0  0  0
   -3.6231   26.4326   46.3243 C   0  0  0  0  0  0  0  0  0  0  0  0
   -4.1889   27.2679   47.3772 C   0  0  0  0  0  0  0  0  0  0  0  0
   -5.3210   26.9181   47.8617 O   0  0  0  0  0  0  0  0  0  0  0  0
   -3.6154   28.4034   47.9147 O   0  0  0  0  0  0  0  0  0  0  0  0
   -4.2760   25.1993   46.1475 C   0  0  0  0  0  0  0  0  0  0  0  0
   -3.7459   24.2262   45.3472 C   0  0  0  0  0  0  0  0  0  0  0  0
   -2.5525   24.4664   44.7078 C   0  0  0  0  0  0  0  0  0  0  0  0
   -1.9160   25.6704   44.8763 C   0  0  0  0  0  0  0  0  0  0  0  0
   -0.7164   25.9334   44.2439 O   0  0  0  0  0  0  0  0  0  0  0  0
    0.0784   29.4117   46.8163 C   0  0  0  0  0  0  0  0  0  0  0  0
   -0.4464   30.5052   46.0991 O   0  0  0  0  0  0  0  0  0  0  0  0
    1.2082   29.5765   47.5788 C   0  0  0  0  0  0  0  0  0  0  0  0
    3.8037   32.0522   52.1389 C   0  0  0  0  0  0  0  0  0  0  0  0
    4.2975   33.1680   52.7908 C   0  0  0  0  0  0  0  0  0  0  0  0
    3.4968   33.9361   53.6248 C   0  0  0  0  0  0  0  0  0  0  0  0
    2.1772   33.5854   53.8133 C   0  0  0  0  0  0  0  0  0  0  0  0
    1.4024   34.3735   54.6532 O   0  0  0  0  0  0  0  0  0  0  0  0
    1.6970   32.4725   53.1590 C   0  0  0  0  0  0  0  0  0  0  0  0
    2.4881   31.7045   52.3283 C   0  0  0  0  0  0  0  0  0  0  0  0
  1  2  2  0
  2  3  1  0
  4  3  1  1
  4  5  1  0
  5  6  1  0
  6  7  1  1
  6  8  1  0
  8  9  1  0
  9 10  1  1
 10 11  1  0
 11 12  2  0
 11 13  1  0
 13 14  2  0
 14 15  1  0
 15 16  1  0
 15 17  2  0
 17 18  1  0
 18 19  2  0
 18 20  1  0
 20 21  2  0
 21 22  1  0
 22 23  2  0
 22 24  1  0
 21 25  1  0
 25 26  2  0
 26 27  1  0
 27 28  2  0
 28 29  1  0
 17 30  1  0
 30 31  1  0
 30 32  2  0
  2 33  1  0
 33 34  2  0
 34 35  1  0
 35 36  2  0
 36 37  1  0
 36 38  1  0
 38 39  2  0
  9  4  1  0
 32 13  1  0
 39 33  1  0
 28 20  1  0
M  END
$$$$
